Version 4
SHEET 1 880 692
WIRE 32 48 -32 48
WIRE 128 48 32 48
WIRE -32 112 -32 48
WIRE 128 112 128 48
WIRE 384 176 384 160
WIRE -32 208 -32 192
WIRE -32 208 -416 208
WIRE 384 208 384 176
WIRE -192 224 -272 224
WIRE -32 240 -32 208
WIRE 128 240 128 192
WIRE -272 288 -272 224
WIRE 336 288 336 272
WIRE 336 288 192 288
WIRE 368 288 336 288
WIRE 384 288 368 288
WIRE -176 304 -192 304
WIRE -160 304 -160 288
WIRE -160 304 -176 304
WIRE -96 304 -96 288
WIRE 368 304 368 288
WIRE -608 320 -608 304
WIRE -192 320 -192 304
WIRE -608 336 -608 320
WIRE -32 368 -32 336
WIRE 0 368 -32 368
WIRE 128 368 128 336
WIRE 128 368 0 368
WIRE -96 400 -96 304
WIRE 0 400 0 368
WIRE -272 416 -272 368
WIRE -192 416 -192 400
WIRE 336 416 336 288
WIRE 336 416 -192 416
WIRE 368 416 368 384
WIRE -608 448 -608 416
WIRE -608 448 -688 448
WIRE -688 464 -688 448
WIRE -160 464 -192 464
WIRE -128 464 -160 464
WIRE -608 480 -608 448
WIRE -192 480 -192 464
WIRE -416 496 -416 208
WIRE -224 496 -416 496
WIRE 0 512 0 480
WIRE 0 512 -160 512
WIRE -224 528 -272 528
WIRE -400 560 -448 560
WIRE -368 560 -400 560
WIRE -272 560 -272 528
WIRE -272 560 -288 560
WIRE -224 560 -272 560
WIRE -192 560 -192 544
WIRE -608 576 -608 560
WIRE -272 576 -272 560
WIRE -608 592 -608 576
WIRE -272 672 -272 656
WIRE 384 672 -224 672
FLAG -272 416 0
FLAG -192 560 0
FLAG -272 672 0
FLAG -608 320 VCC
FLAG -608 576 VEE
FLAG -688 464 0
FLAG 32 48 VCC
FLAG -160 464 VCC
FLAG 368 416 0
FLAG 384 176 VCC
FLAG -400 560 VCC
SYMBOL npn -96 240 R0
SYMATTR InstName Q1
SYMBOL npn 192 240 M0
SYMATTR InstName Q2
SYMBOL res 112 96 R0
SYMATTR InstName R2
SYMATTR Value 10k
SYMBOL voltage -272 272 R0
WINDOW 123 0 0 Left 2
WINDOW 39 0 0 Left 2
SYMATTR InstName V2
SYMATTR Value PWL(0 4.5 10ms 0)
SYMBOL res -48 96 R0
SYMATTR InstName R1
SYMATTR Value 1000k
SYMBOL Opamps\\opamp2 -192 448 R0
SYMATTR InstName U1
SYMATTR Value LM358
SYMBOL res -272 544 R90
WINDOW 0 0 56 VBottom 2
WINDOW 3 32 56 VTop 2
SYMATTR InstName R4
SYMATTR Value 10k
SYMBOL res -256 672 R180
WINDOW 0 36 76 Left 2
WINDOW 3 36 40 Left 2
SYMATTR InstName R5
SYMATTR Value 10k
SYMBOL res -16 384 R0
SYMATTR InstName R6
SYMATTR Value 1k
SYMBOL voltage -608 320 R0
WINDOW 123 0 0 Left 2
WINDOW 39 0 0 Left 2
SYMATTR InstName V3
SYMATTR Value 9
SYMBOL voltage -608 464 R0
WINDOW 123 0 0 Left 2
WINDOW 39 0 0 Left 2
SYMATTR InstName V4
SYMATTR Value 9
SYMBOL res 368 192 R0
SYMATTR InstName R7
SYMATTR Value 100k
SYMBOL res 352 288 R0
SYMATTR InstName R8
SYMATTR Value 100k
SYMBOL res -208 208 R0
SYMATTR InstName R3
SYMATTR Value 100k
SYMBOL res -208 304 R0
SYMATTR InstName R9
SYMATTR Value 5k
SYMBOL res -80 288 R90
WINDOW 0 0 56 VBottom 2
WINDOW 3 32 56 VTop 2
SYMATTR InstName R10
SYMATTR Value 1k
TEXT -210 600 Left 2 !.tran 10ms
TEXT 64 672 Left 2 !.lib LM358.sub
