Version 4
SHEET 1 1464 772
WIRE 128 -16 -352 -16
WIRE 384 -16 128 -16
WIRE 768 -16 384 -16
WIRE 48 32 -32 32
WIRE 176 32 112 32
WIRE 384 32 384 -16
WIRE -352 80 -352 -16
WIRE -352 80 -416 80
WIRE -352 128 -352 80
WIRE 128 128 128 -16
WIRE 128 128 64 128
WIRE 768 128 768 -16
WIRE -192 144 -224 144
WIRE -160 144 -192 144
WIRE -32 144 -32 32
WIRE -32 144 -80 144
WIRE 16 144 -32 144
WIRE 32 144 16 144
WIRE 736 144 448 144
WIRE 176 160 176 32
WIRE 176 160 96 160
WIRE 320 160 176 160
WIRE 448 160 448 144
WIRE 448 160 320 160
WIRE 912 160 800 160
WIRE 1056 160 912 160
WIRE 32 176 -48 176
WIRE 736 176 624 176
WIRE 384 192 384 112
WIRE 624 192 624 176
WIRE 624 192 384 192
WIRE 384 208 384 192
WIRE -352 240 -352 208
WIRE -224 240 -224 144
WIRE -160 240 -224 240
WIRE -48 240 -48 176
WIRE -48 240 -80 240
WIRE 64 240 64 192
WIRE 768 240 768 192
WIRE -224 288 -224 240
WIRE -416 304 -416 80
WIRE -336 304 -416 304
WIRE -48 320 -48 240
WIRE 16 320 16 144
WIRE 624 320 624 192
WIRE 752 320 624 320
WIRE 912 320 912 160
WIRE 912 320 832 320
WIRE 384 336 384 288
WIRE 16 448 16 400
WIRE 1056 528 1056 160
WIRE 1056 528 64 528
WIRE -224 544 -224 368
WIRE -48 544 -48 400
WIRE -48 544 -224 544
WIRE -48 560 -48 544
WIRE -336 624 -336 304
WIRE -208 624 -256 624
WIRE -144 624 -208 624
WIRE -144 640 -144 624
WIRE 16 640 16 544
WIRE -208 688 -208 624
WIRE -48 688 -208 688
WIRE -144 736 -336 736
WIRE 16 736 -144 736
WIRE 16 752 16 736
FLAG -352 240 0
FLAG 384 336 0
FLAG -48 560 0
FLAG 64 240 0
FLAG 768 240 0
FLAG 320 160 OUT
FLAG 912 160 OUT2
FLAG -192 144 IN
FLAG 16 752 0
SYMBOL voltage -352 112 R0
WINDOW 123 0 0 Left 2
WINDOW 39 0 0 Left 2
SYMATTR InstName V1
SYMATTR Value 9V
SYMBOL res 368 16 R0
SYMATTR InstName R1
SYMATTR Value 100k
SYMBOL res 368 192 R0
SYMATTR InstName R2
SYMATTR Value 100k
SYMBOL res 848 304 R90
WINDOW 0 0 56 VBottom 2
WINDOW 3 32 56 VTop 2
SYMATTR InstName R4
SYMATTR Value 50k
SYMBOL res -64 128 R90
WINDOW 0 0 56 VBottom 2
WINDOW 3 32 56 VTop 2
SYMATTR InstName R5
SYMATTR Value 10k
SYMBOL res -64 224 R90
WINDOW 0 0 56 VBottom 2
WINDOW 3 32 56 VTop 2
SYMATTR InstName R6
SYMATTR Value 4.9k
SYMBOL res -32 416 R180
WINDOW 0 36 76 Left 2
WINDOW 3 36 40 Left 2
SYMATTR InstName R7
SYMATTR Value 4.9k
SYMBOL voltage -224 272 R0
WINDOW 123 0 0 Left 2
WINDOW 39 0 0 Left 2
WINDOW 3 -198 108 Left 2
SYMATTR Value PWL(0 0 2ms 2)
SYMATTR InstName V2
SYMBOL cap 112 16 R90
WINDOW 0 0 32 VBottom 2
WINDOW 3 32 32 VTop 2
SYMATTR InstName C1
SYMATTR Value .05µ
SYMATTR SpiceLine V=50 Irms=10.158 Rser=1 Lser=0
SYMBOL 2N7000 64 448 M0
SYMATTR InstName U3
SYMBOL Opamps\\opamp2 64 96 R0
SYMATTR InstName U1
SYMATTR Value lm358
SYMBOL Opamps\\opamp2 768 96 R0
SYMATTR InstName U2
SYMATTR Value LM358
SYMBOL npn -208 640 R0
SYMATTR InstName Q1
SYMBOL npn -48 640 R0
SYMATTR InstName Q2
SYMBOL res -240 608 R90
WINDOW 0 0 56 VBottom 2
WINDOW 3 32 56 VTop 2
SYMATTR InstName R3
SYMATTR Value 40k
SYMBOL res 0 304 R0
SYMATTR InstName R8
SYMATTR Value .0001
TEXT -536 304 Left 2 !.tran 100ms
TEXT 352 408 Left 2 !;step lin param V 0 9 .5
TEXT 280 600 Left 2 !.measure TRAN t1 when V(out)=4.5V cross 10\n.measure TRAN t2 when V(out)=4.5V cross 12\n.measure TRAN freq1 PARAM { 1/(t2-t1) }
TEXT 1264 448 Left 2 !.lib 2N7000.sub
TEXT 1112 232 Left 2 !.lib LM358.sub
