Version 4
SHEET 1 1116 680
WIRE 352 -416 208 -416
WIRE 432 -416 352 -416
WIRE 544 -416 432 -416
WIRE 768 -416 544 -416
WIRE 352 -368 352 -416
WIRE 544 -368 544 -416
WIRE 784 -336 752 -336
WIRE 896 -336 864 -336
WIRE 208 -304 208 -336
WIRE 768 -288 768 -416
WIRE 816 -288 768 -288
WIRE 816 -272 816 -288
WIRE 352 -256 352 -288
WIRE 352 -256 -144 -256
WIRE 640 -256 352 -256
WIRE 752 -256 752 -336
WIRE 752 -256 720 -256
WIRE 784 -256 752 -256
WIRE 544 -240 544 -288
WIRE 544 -240 48 -240
WIRE 624 -240 544 -240
WIRE 896 -240 896 -336
WIRE 896 -240 848 -240
WIRE 960 -240 896 -240
WIRE 992 -240 960 -240
WIRE 784 -224 752 -224
WIRE -144 -208 -144 -256
WIRE 48 -208 48 -240
WIRE 352 -208 352 -256
WIRE 544 -208 544 -240
WIRE 624 -192 624 -240
WIRE 640 -192 624 -192
WIRE 752 -192 752 -224
WIRE 752 -192 720 -192
WIRE 816 -176 816 -208
WIRE -304 -160 -320 -160
WIRE -256 -160 -304 -160
WIRE -208 -160 -256 -160
WIRE 208 -160 112 -160
WIRE 288 -160 208 -160
WIRE 640 -160 608 -160
WIRE 752 -160 752 -192
WIRE 208 -144 208 -160
WIRE -320 -48 -320 -80
WIRE -144 -48 -144 -112
WIRE -48 -48 -64 -48
WIRE -32 -48 -48 -48
WIRE 48 -48 48 -112
WIRE 208 -48 208 -64
WIRE 352 -48 352 -112
WIRE 448 -48 432 -48
WIRE 464 -48 448 -48
WIRE 544 -48 544 -112
WIRE -256 16 -256 -160
WIRE 640 16 640 -160
WIRE 640 16 -256 16
WIRE -48 64 -48 -48
WIRE 448 64 448 -48
WIRE -144 112 -208 112
WIRE -112 112 -144 112
WIRE 592 112 512 112
WIRE 752 112 752 -80
WIRE 752 112 592 112
WIRE 592 128 592 112
WIRE -208 144 -208 112
WIRE -48 208 -48 160
WIRE -32 208 -48 208
WIRE 208 208 48 208
WIRE 352 208 208 208
WIRE 448 208 448 160
WIRE 448 208 432 208
WIRE 208 224 208 208
WIRE 592 240 592 208
WIRE -208 256 -208 224
WIRE 208 320 208 304
FLAG 208 -48 0
FLAG -320 -48 0
FLAG -208 256 0
FLAG 592 240 0
FLAG 208 -304 0
FLAG 208 320 0
FLAG 816 -176 0
FLAG 960 -240 Vout
FLAG -304 -160 VLO
FLAG -144 112 VRF
FLAG 432 -416 VCC
FLAG 992 -160 0
SYMBOL npn -112 64 R0
SYMATTR InstName Q1
SYMATTR Value 2N2222
SYMBOL npn 512 64 M0
SYMATTR InstName Q2
SYMATTR Value 2N2222
SYMBOL npn 608 -208 M0
SYMATTR InstName Q3
SYMATTR Value 2N2222
SYMBOL npn 288 -208 R0
SYMATTR InstName Q4
SYMATTR Value 2N2222
SYMBOL npn -208 -208 R0
SYMATTR InstName Q5
SYMATTR Value 2N2222
SYMBOL npn 112 -208 M0
SYMATTR InstName Q6
SYMATTR Value 2N2222
SYMBOL res 368 -272 R180
WINDOW 0 36 76 Left 2
WINDOW 3 36 40 Left 2
SYMATTR InstName R1
SYMATTR Value 22k
SYMBOL res 560 -272 R180
WINDOW 0 36 76 Left 2
WINDOW 3 36 40 Left 2
SYMATTR InstName R2
SYMATTR Value 22k
SYMBOL res -48 224 R270
WINDOW 0 32 56 VTop 2
WINDOW 3 0 56 VBottom 2
SYMATTR InstName R3
SYMATTR Value {R}
SYMBOL res 336 224 R270
WINDOW 0 32 56 VTop 2
WINDOW 3 0 56 VBottom 2
SYMATTR InstName R4
SYMATTR Value {R}
SYMBOL res -160 -32 R270
WINDOW 0 32 56 VTop 2
WINDOW 3 0 56 VBottom 2
SYMATTR InstName R5
SYMATTR Value {R}
SYMBOL res -48 -32 R270
WINDOW 0 32 56 VTop 2
WINDOW 3 0 56 VBottom 2
SYMATTR InstName R6
SYMATTR Value {R}
SYMBOL res 336 -32 R270
WINDOW 0 32 56 VTop 2
WINDOW 3 0 56 VBottom 2
SYMATTR InstName R7
SYMATTR Value {R}
SYMBOL res 448 -32 R270
WINDOW 0 32 56 VTop 2
WINDOW 3 0 56 VBottom 2
SYMATTR InstName R8
SYMATTR Value {R}
SYMBOL voltage 208 -160 R0
WINDOW 0 42 37 Left 2
WINDOW 3 42 65 Left 2
WINDOW 123 0 0 Left 2
WINDOW 39 0 0 Left 2
SYMATTR InstName V1
SYMATTR Value 6.75
SYMBOL voltage -320 -176 R0
WINDOW 0 -60 95 Left 2
WINDOW 3 -140 252 Invisible 2
WINDOW 123 0 0 Left 2
WINDOW 39 -60 123 Left 2
SYMATTR InstName V2
SYMATTR Value SINE(6.75 100mV 10Hz)
SYMBOL voltage -208 128 R0
WINDOW 3 -377 96 Invisible 2
WINDOW 123 0 0 Left 2
WINDOW 39 0 0 Left 2
SYMATTR Value SINE(4.5V 200mV 440Hz 0 0 90)
SYMATTR InstName V3
SYMBOL voltage 592 112 R0
WINDOW 123 0 0 Left 2
WINDOW 39 0 0 Left 2
SYMATTR InstName V4
SYMATTR Value 4.5
SYMBOL voltage 208 -432 R0
WINDOW 0 47 40 Left 2
WINDOW 3 46 70 Left 2
WINDOW 123 0 0 Left 2
WINDOW 39 0 0 Left 2
SYMATTR InstName V5
SYMATTR Value 9V
SYMBOL current 208 224 R0
WINDOW 123 0 0 Left 2
WINDOW 39 0 0 Left 2
SYMATTR InstName I1
SYMATTR Value 100µ
SYMBOL Opamps\\LT6231 816 -240 R0
SYMATTR InstName U1
SYMBOL res 736 -272 R90
WINDOW 0 -45 58 VBottom 2
WINDOW 3 -41 56 VTop 2
SYMATTR InstName R9
SYMATTR Value 630k
SYMBOL res 880 -352 R90
WINDOW 0 0 56 VBottom 2
WINDOW 3 32 56 VTop 2
SYMATTR InstName R10
SYMATTR Value 630k
SYMBOL res 768 -64 R180
WINDOW 0 -57 58 Left 2
WINDOW 3 -61 26 Left 2
SYMATTR InstName R11
SYMATTR Value 630k
SYMBOL res 624 -176 R270
WINDOW 0 32 56 VTop 2
WINDOW 3 0 58 VBottom 2
SYMATTR InstName R12
SYMATTR Value 630k
SYMBOL res 976 -256 R0
SYMATTR InstName R13
SYMATTR Value 10k
TEXT -480 72 Left 2 !.tran 100ms
TEXT -512 112 Left 2 !.param R=3.3k
TEXT 72 -224 Left 2 !;op
