Version 4
SHEET 1 1104 1340
WIRE -480 -96 -512 -96
WIRE -368 -96 -416 -96
WIRE -368 -16 -368 -32
WIRE -368 -16 -512 -16
WIRE -368 0 -368 -16
FLAG -368 0 0
SYMBOL memristor1 -448 -96 R270
SYMATTR InstName X1
SYMATTR Value hpmemristor
SYMATTR Prefix X
SYMBOL voltage -512 -112 R0
WINDOW 123 0 0 Left 2
WINDOW 39 0 0 Left 2
SYMATTR InstName V1
SYMATTR Value SINE(0 1.5 1000)
SYMBOL res -384 -112 R0
SYMATTR InstName R1
SYMATTR Value 10k
TEXT -546 1176 Left 2 !.tran .1s
TEXT -2016 -168 Left 2 !.SUBCKT hpmemristor Plus Minus PARAMS:\n+ a=25 b=8 c1=9 c2=0.01 d1=2 d2=4 s=1u n=4 p=1 lmin=0.05 lmax=0.95\n*State variable:\nGsv 0 w value={f(V(w),V(Plus,Minus))*g(V(Plus,Minus))}\nCsv w 0 1\n.IC V(w) 0.05\n*Output:\nGmem Plus Minus value = {s*((V(w)**n)*c1*sinh(d1*V(Plus,Minus))+c2*(exp(d2*V(Plus,Minus))-1))}\n \n \n*Auxiliary functions:\n.func sign2(var) = {(sgn(var)+1)/2}\n.func trunc(var1,var2) = {(sign2(var1-lmin)+sign2(var2))*(sign2(lmax-var1)+sign2(-var2))/2}\n.func f(var1,var2) = {trunc(var1,var2)*(1-(2*var1-1)**(2*p))}\n.func g(var) = {a*sinh(b*var)}\n \n \n.ENDS hpmemristor
