Version 4
SHEET 1 880 680
WIRE -336 16 -336 -16
WIRE -336 32 -336 16
WIRE -608 112 -608 96
WIRE -608 128 -608 112
WIRE -336 144 -336 112
WIRE -336 240 -336 224
WIRE -288 240 -336 240
WIRE -192 240 -224 240
WIRE -144 240 -192 240
WIRE 32 240 -64 240
WIRE -608 256 -608 208
WIRE 208 256 176 256
WIRE 352 256 288 256
WIRE -336 272 -336 240
WIRE -32 288 -80 288
WIRE -16 288 -32 288
WIRE 32 288 32 240
WIRE -80 320 -80 288
WIRE 288 320 240 320
WIRE 304 320 288 320
WIRE -192 336 -192 240
WIRE -112 336 -192 336
WIRE 240 336 240 320
WIRE 32 352 32 288
WIRE 32 352 -48 352
WIRE 80 352 32 352
WIRE 176 352 176 256
WIRE 176 352 160 352
WIRE 208 352 176 352
WIRE -112 368 -256 368
WIRE 352 368 352 256
WIRE 352 368 272 368
WIRE 448 368 352 368
WIRE 496 368 448 368
WIRE -336 384 -336 352
WIRE 208 384 144 384
WIRE -80 416 -80 384
WIRE 144 432 144 384
WIRE 240 432 240 400
WIRE -256 448 -256 368
WIRE -256 544 -256 528
WIRE 144 560 144 512
FLAG -608 256 0
FLAG -80 416 0
FLAG -256 544 0
FLAG -336 384 0
FLAG 240 432 0
FLAG -32 288 VCC
FLAG -608 112 VCC
FLAG 288 320 VCC
FLAG -336 16 VCC
FLAG 448 368 VOUT
FLAG 144 560 0
DATAFLAG 32 288 ""
SYMBOL voltage -608 112 R0
WINDOW 123 0 0 Left 2
WINDOW 39 0 0 Left 2
SYMATTR InstName V1
SYMATTR Value 9V
SYMBOL Opamps\\LT6231 -80 352 R0
SYMATTR InstName U1
SYMBOL res -48 224 R90
WINDOW 0 0 56 VBottom 2
WINDOW 3 32 56 VTop 2
SYMATTR InstName R1
SYMATTR Value 26k
SYMBOL voltage -256 432 R0
WINDOW 123 0 0 Left 2
WINDOW 39 0 0 Left 2
SYMATTR InstName V3
SYMATTR Value 4.5V
SYMBOL diode -288 256 R270
WINDOW 0 32 32 VTop 2
WINDOW 3 0 32 VBottom 2
SYMATTR InstName D1
SYMBOL res -320 240 R180
WINDOW 0 36 76 Left 2
WINDOW 3 36 40 Left 2
SYMATTR InstName R4
SYMATTR Value {R}
SYMBOL res -320 368 R180
WINDOW 0 36 76 Left 2
WINDOW 3 36 40 Left 2
SYMATTR InstName R5
SYMATTR Value 22k
SYMBOL res -352 16 R0
SYMATTR InstName R3
SYMATTR Value 10k
SYMBOL Opamps\\LT6231 240 368 R0
SYMATTR InstName U2
SYMBOL res 176 336 R90
WINDOW 0 0 56 VBottom 2
WINDOW 3 32 56 VTop 2
SYMATTR InstName R6
SYMATTR Value 10k
SYMBOL res 304 240 R90
WINDOW 0 0 56 VBottom 2
WINDOW 3 32 56 VTop 2
SYMATTR InstName R7
SYMATTR Value 10k
SYMBOL voltage 144 416 R0
WINDOW 123 0 0 Left 2
WINDOW 39 0 0 Left 2
SYMATTR InstName V2
SYMATTR Value 4.5V
TEXT -680 328 Left 2 !.tran 2ms
TEXT -776 384 Left 2 !.step lin param R 1 10k
